LAMMPS (29 Aug 2024 - Update 1)
Loaded 1 plugins from C:\Users\Ethan\AppData\Local\LAMMPS 64-bit 29Aug2024-MSMPI\plugins
## Edge Dislocation Molecular Dynamics Study
# Ethan L. Edmunds, Dec 2024

# EAM Potential: L. Proville, D. Rodney, and M.-C. Marinica (2012), "Quantum effect on thermally activated glide of dislocations", Nature Materials, 11(10), 845-849. DOI: 10.1038/nmat3401.

# Set the units
units metal
atom_style atomic

# Set boundary conditions to be periodic in all axes
boundary p p p

# Get lammps to creat bcc lattice
# Default orientation: [100], [010], and [001] directions along the x, y, and z axes respectively
lattice bcc 2.866
Lattice spacing in x,y,z = 2.866 2.866 2.866
region box block 0 4 0 4 0 4
create_box 1 box
Created orthogonal box = (0 0 0) to (11.464 11.464 11.464)
create_atoms 1 box
Created 128 atoms

# Select EAM potential to use
pair_style eam/fs
pair_coeff * * MCM2011_eam.fs Fe

# Methodology, inspired by:
# "Atomistic simulations of dislocation mobility in refractory high-entropy alloys and the effect of chemical short-range order"
# "Learning dislocation dynamics mobility laws from large-scale MD simulations"
# "Probing the limits of metal plasticity with molecular dynamics simulations"

print "Simulation Started"
Simulation Started

# SETTINGS
compute csym all centro/atom bcc
compute peratom all pe/atom

# Thermalisation
# Equilibrate the system at 300 K using the Langevin thermostat
timestep 0.001 # Timestep of 1 femto second

# Initialise all the atoms with a velocity distribution corresponding to a 300K
velocity all create 300.0 4928459 mom yes rot yes dist gaussian

# Use a nose-hoover thermostat to maintain a target temperature (300k) and a barostat to regulate the pressure
# Look up this commant to understand the thermostat and barostat used
fix	1 all npt temp 300.0 300.0 $(100.0*dt) iso 0.0 0.0 $(1000.0*dt)
fix	1 all npt temp 300.0 300.0 0.10000000000000000555 iso 0.0 0.0 $(1000.0*dt)
fix	1 all npt temp 300.0 300.0 0.10000000000000000555 iso 0.0 0.0 1

# set output options for atom level data
dump 1 all custom 500 dump/dumpFile.* id type id type x y z vx vy vz c_csym c_peratom fx fy fz # Dump atomic data (ID, type, positions, velocities, stress, and forces) every 500 timesteps into files named dumpFile.* in the dump folder.

# Set output options for lammps logfile, including frequency of data output
thermo_style custom step dt time temp press ke pe etotal
thermo 100

run 5000  # Run for 50000 timesteps for equilibration
Step           Dt            Time           Temp          Press          KinEng         PotEng         TotEng
0   0.001          0              300           -96382.536      4.9248115     -525.20859     -520.28378
Averages over the last 26 of 51 rows, steps 2500 to 5000:
Dt Temp Press KinEng PotEng TotEng
0.001 294.217 240.841 4.82987 -523.427 -518.597
Loop time of 3.80358 on 1 procs for 5000 steps with 128 atoms

unfix 1
undump 1

# Store final cell length for strain calculations
variable tmp equal "lz"
variable L0 equal 11.2986996250588

print "System Thermalised"
System Thermalised

reset_timestep 0

fix 1 all npt temp 300 300 1 x 0 0 1 y 0 0 1 drag 1 # apply the NPT ensemble to control the system's temperature at 300 K and pressure in the x and y directions with a relaxation time of 1 timestep, while also applying a drag coefficient of 1 for viscous damping

# Calculate the strain in the z-direction based on the initial and current box lengths (Lz) for the units "metal"
variable strain equal "(lz - v_L0)/v_L0"

# Assign the variable p1 to the value of the strain variable calculated above
variable p1 equal "v_strain"

# Assign p2, p3, and p4 to the negative values of the stress components (pxx, pyy, pzz) divided by 10000 to convert to appropriate units
variable p2 equal "-pxx/10000"
variable p3 equal "-pyy/10000"
variable p4 equal "-pzz/10000"

# Print the strain and stress components (p1, p2, p3, p4) to a file every 100 timesteps
# The output is written to the file "Al_SC_100.def1.txt" and not to the screen

# Dump files
dump 1 all custom 250 dump/dumpFile.* id type x y z vx vy vz c_csym c_peratom fx fy fz # Dump atomic data (ID, type, positions, velocities, stress, and forces) every 250 timesteps into files named dumpFile.* in the dump folder.

# Display thermo
thermo  250
thermo_style custom step v_strain temp v_p2 v_p3 v_p4 ke pe press

run 20000
Step        v_strain         Temp           v_p2           v_p3           v_p4          KinEng         PotEng         Press
0   2.6727028e-15  323.52486      0.56705126     0.6548683      0.63141316     5.3109966     -523.39139     -6177.7757
Averages over the last 41 of 81 rows, steps 10000 to 20000:
v_strain Temp v_p2 v_p3 v_p4 KinEng PotEng Press
1.5e-07 302.145 0.0260527 0.0642994 0.178371 4.96002 -523.364 -895.743
Loop time of 15.2744 on 1 procs for 20000 steps with 128 atoms

# "mpiexec -np 2 lmp -in edge_dislocation_tension.lmp"
# "lmp -in edge_dislocation_tension.lmp"
